 &NAMEL

 HOGE(100).HIGE(2,3) = 100
 B = 1,2,3
 C.D = 100

 /