 &NAMEL

 HOGE(1).HIGE(1,1) = 2*100, 200, 300, , 2, 3, 4
 B = 1,2,3
 C.D = 100

 /